/*--------------------------------*- C++ -*----------------------------------*\
| =========                 |                                                 |
| \\      /  F ield         | OpenFOAM: The Open Source CFD Toolbox           |
|  \\    /   O peration     | Version:  5.x                                   |
|   \\  /    A nd           | Web:      www.OpenFOAM.org                      |
|    \\/     M anipulation  |                                                 |
\*---------------------------------------------------------------------------*/
/*   Windows 32 and 64 bit porting by blueCAPE: http://www.bluecape.com.pt   *\
|  Based on Windows porting (2.0.x v4) by Symscape: http://www.symscape.com   |
\*---------------------------------------------------------------------------*/
FoamFile
{
    version     2.0;
    format      ascii;
    class       polyBoundaryMesh;
    location    "constant/polyMesh";
    object      boundary;
}
// * * * * * * * * * * * * * * * * * * * * * * * * * * * * * * * * * * * * * //

6
(
    inlet
    {
        type            patch;
        nFaces          800;
        startFace       978220;
    }
    outlet
    {
        type            patch;
        nFaces          800;
        startFace       979020;
    }
    upperWall
    {
        type            patch;
        nFaces          980;
        startFace       979820;
    }
    lowerWall
    {
        type            wall;
        inGroups        1(wall);
        nFaces          300;
        startFace       980800;
    }
    Symmetry
    {
        type            symmetryPlane;
        inGroups        1(symmetryPlane);
        nFaces          680;
        startFace       981100;
    }
    frontAndBack
    {
        type            empty;
        inGroups        1(empty);
        nFaces          392000;
        startFace       981780;
    }
)

// ************************************************************************* //
