/*--------------------------------*- C++ -*----------------------------------*\
  =========                 |
  \\      /  F ield         | OpenFOAM: The Open Source CFD Toolbox
   \\    /   O peration     | Website:  https://openfoam.org
    \\  /    A nd           | Version:  6
     \\/     M anipulation  |
\*---------------------------------------------------------------------------*/
FoamFile
{
    version     2.0;
    format      ascii;
    class       dictionary;
    object      blockMeshDict;
}
// * * * * * * * * * * * * * * * * * * * * * * * * * * * * * * * * * * * * * //

convertToMeters 1e-3;

vertices
(
    (-85 0 0)	//0
    (0 0 0)	//1
    (0 100 0)	//2
    (-85 100 0)	//3
    (-85 0 2)	//4
    (0 0 2)	//5
    (0 100 2)	//6
    (-85 100 2)	//7
    (30 0 0)	//8
    (30 100 0)	//9
    (30 0 2)	//10
    (30 100 2)	//11
    (115 0 0)	//12
    (115 100 0)	//13
    (115 0 2)	//14
    (115 100 2)	//15
    
);

blocks
(
    hex (0 1 2 3 4 5 6 7) (170 400 2) simpleGrading (0.2 5 1)
    hex (1 8 9 2 5 10 11 6) (150 400 2) simpleGrading (1 5 1)
    hex (8 12 13 9 10 14 15 11) (170 400 2) simpleGrading (5 5 1)
    
);



edges
(
);

boundary
(
    inlet
    {
        type patch;
        faces
        (
            (0 4 7 3)
        );
    }
    outlet
    {
        type patch;
        faces
        (
            (12 13 15 14)
        );
    }
    upperWall
    {
        type patch;
        faces
        (
            (3 7 6 2)
	    (2 6 11 9)
            (9 11 15 13)
        );
    }
    lowerWall
    {
        type wall;
        faces
        (
            (1 8 10 5)
	);
    }
    Symmetry
    {
	type symmetryPlane;
	faces
	(
	   (0 1 5 4)
	   (8 12 14 10)
	);
    }
    frontAndBack
    {
        type empty;
        faces
        (
           (0 3 2 1)
       	   (1 2 9 8)
	   (8 9 13 12)
     	   (4 5 6 7)
	   (5 10 11 6)
	   (10 14 15 11)
        );
    }
);

// ************************************************************************* //
