// ************************************************************************* //
/*--------------------------------*- C++ -*----------------------------------*\
| =========                 |                                                 |
| \\      /  F ield         | OpenFOAM: The Open Source CFD Toolbox           |
|  \\    /   O peration     | Version:  3.0.1                                 |
|   \\  /    A nd           | Web:      www.OpenFOAM.org                      |
|    \\/     M anipulation  |                                                 |
\*---------------------------------------------------------------------------*/
FoamFile
{
    version     2.0;
    format      ascii;
    class       dictionary;
    object      blockMeshDict;
}
// * * * * * * * * * * * * * * * * * * * * * * * * * * * * * * * * * * * * * //

convertToMeters 1;

vertices
(
    	(4 0 0)		//0
	(6 0 0)		//1
	(6 4.99995 0)	//2
	(4 4.99995 0)	//3
    	(4 0 0.1)	//4
	(6 0 0.1)	//5
	(6 4.99995 0.1)	//6
	(4 4.99995 0.1)	//7

 	(10 0 0) 	//8
   	(10 4.99995 0)	//9
    	(10 0 0.1) 	//10
    	(10 4.99995 0.1)	//11

    	(0 0 0)		//12
    	(0 4.99995 0)	//13
    	(0 0 0.1)	//14
    	(0 4.99995 0.1)	//15

    	(0 5.00005 0)	//16
    	(4 5.00005 0)	//17
    	(0 5.00005 0.1)	//18
    	(4 5.00005 0.1)	//19
	
    	(6 5.00005 0)	//20
    	(10 5.00005 0)	//21
    	(6 5.00005 0.1)	//22
    	(10 5.00005 0.1)	//23

    	(0 10 0)	//24
    	(4 10 0)	//25
    	(0 10 0.1)	//26
    	(4 10 0.1)	//27

    	(6 10 0)	//28
    	(6 10 0.1)	//29

    	(10 10 0)	//30
   	(10 10 0.1)	//31	
);		

blocks
(
    hex (0 1 2 3 4 5 6 7) (88 220 1) simpleGrading (1 1 1) 		//1
    hex (1 8 9 2 5 10 11 6) (176 220 1) simpleGrading (1 1 1)		//2
    hex (12 0 3 13 14 4 7 15) (176 220 1) simpleGrading (1 1 1)		//3
    hex (13 3 17 16 15 7 19 18) (176 1 1) simpleGrading (1 1 1)		//4
    hex (2 9 21 20 6 11 23 22) (176 1 1) simpleGrading (1 1 1)		//5
    hex (16 17 25 24 18 19 27 26) (176 220 1) simpleGrading (1 1 1)	//6
    hex (17 20 28 25 19 22 29 27) (88 220 1) simpleGrading (1 1 1)	//7
    hex (20 21 30 28 22 23 31 29) (176 220 1) simpleGrading (1 1 1)	//8

);

edges
(
);

boundary
(
    plate
    {
        type wall;
        faces
        (
            (3 17 19 7)
            (3 7 6 2)
            (17 20 22 19)
            (2 6 22 20)
        );
    }

    inlet	//freestream conditions
    {
        type patch;
        faces
        (
           (12 13 15 14)
           (13 16 18 15)
	   (16 24 26 18)
        );
    }

    outlet	//freestream conditions
    {
        type patch;
        faces
        (
           
           (12 14 4 0)
           (0 4 5 1)
           (1 5 10 8)
           (24 25 27 26)
           (25 28 29 27)
           (28 30 31 29)
	   (8 10 11 9)
           (9 11 23 21)
           (21 23 31 30)
        );
    }

    frontAndBack
    {
        type empty;
        faces
        (
            (0 1 2 3)
       	    (4 5 6 7)
        );
    }
);

mergePatchPairs
(
);

// ************************************************************************* //
