/*--------------------------------*- C++ -*----------------------------------*\
| =========                 |                                                 |
|  \\    /   O peration     | Version:  3.0.1                                 |
|   \\  /    A nd           | Web:      www.OpenFOAM.org                      |
|    \\/     M anipulation  |                                                 |
\*---------------------------------------------------------------------------*/
FoamFile
{
    version     2.0;
    format      ascii;
    class       volVectorField;
    object      boundaryU;
}
// * * * * * * * * * * * * * * * * * * * * * * * * * * * * * * * * * * * * * //

dimensions      [0 1 -1 0 0 0 0];

internalField   uniform (0 0 0);

boundaryField
{
    inlet
    {
        type            fixedValue;
        value           uniform (1503 0 0);
    }

    Outlet
    {
        type            inletOutlet;
        inletValue      uniform (10 0 0);
        value           uniform (1000 0 0);
    }

    wall
    {
        type            zeroGradient;
    }

    frontAndBack
    {
        type            empty;
      //value           uniform 300;//
    }
}

// ************************************************************************* //
