/*--------------------------------*- C++ -*----------------------------------*\
| =========                 |                                                 |
| \\      /  F ield         | OpenFOAM: The Open Source CFD Toolbox           |
|  \\    /   O peration     | Version:  5                                     |
|   \\  /    A nd           | Web:      www.OpenFOAM.org                      |
|    \\/     M anipulation  |                                                 |
\*---------------------------------------------------------------------------*/
FoamFile
{
    version     2.0;
    format      ascii;
    class       dictionary;
    location    "system";
    object      controlDict;
}
// * * * * * * * * * * * * * * * * * * * * * * * * * * * * * * * * * * * * * //

application     dsmcFoam;

startFrom       latestTime;

startTime       latestTime;

stopAt          endTime;

endTime         1.0e-2;

deltaT          5.0e-8;

writeControl    runTime;

writeInterval   1.0e-4;

purgeWrite      0;

writeFormat     ascii;

writePrecision  10;

writeCompression on;

timeFormat      general;

timePrecision   10;

runTimeModifiable true;

adjustTimeStep  no;

functions
{
    fieldAverage1
    {
        type            fieldAverage;
        libs            ("libfieldFunctionObjects.so");
        writeControl    writeTime;

        fields
        (
            rhoN
            {
                mean        on;
                prime2Mean  off;
                base        time;
            }
            rhoM
            {
                mean        on;
                prime2Mean  off;
                base        time;
            }
            dsmcRhoN
            {
                mean        on;
                prime2Mean  off;
                base        time;
            }
            momentum
            {
                mean        on;
                prime2Mean  off;
                base        time;
            }
            linearKE
            {
                mean        on;
                prime2Mean  off;
                base        time;
            }
            internalE
            {
                mean        on;
                prime2Mean  off;
                base        time;
            }
            iDof
            {
                mean        on;
                prime2Mean  off;
                base        time;
            }
            q
            {
                mean        on;
                prime2Mean  off;
                base        time;
            }
            fD
            {
                mean        on;
                prime2Mean  off;
                base        time;
            }
        );
    }

    dsmcFields1
    {
        type            dsmcFields;
        libs            ("liblagrangianFunctionObjects.so");
        writeControl    writeTime;
    }

}

// ************************************************************************* //
